Results/New_campus/from_terminal_3/network_debug.txt
Pandapower Network Debug Info
==================================================

BUS:
          name  vn_kv type  zone  in_service   geo
0        Bus 8    0.4    b  None        True  None
1        Bus 9    0.4    b  None        True  None
2       Bus 10    0.4    b  None        True  None
3       Bus 11    0.4    b  None        True  None
4       Bus 21   15.0    b  None        True  None
5       Bus 22   15.0    b  None        True  None
6       Bus 23   15.0    b  None        True  None
7     Sub MV 2   15.0    b  None        True  None
8     Sub LV 2    0.4    b  None        True  None
9   Slack HV 0   70.0    b  None        True  None
10  Slack MV 0   15.0    b  None        True  None
--------------------------------------------------

LOAD:
              name  bus      p_mw        q_mvar  const_z_percent  const_i_percent  sn_mva  scaling  in_service type
0        Load 8 T1    0  0.001099 -1.358699e-05              0.0              0.0     NaN      1.0        True  wye
1        Load 8 T2    0  0.001099 -1.358699e-05              0.0              0.0     NaN      1.0        True  wye
2        Load 8 T3    0  0.001099 -1.358699e-05              0.0              0.0     NaN      1.0        True  wye
3        Load 8 T4    0  0.001099 -1.358699e-05              0.0              0.0     NaN      1.0        True  wye
4        Load 8 T5    0  0.001099 -1.358699e-05              0.0              0.0     NaN      1.0        True  wye
5        Load 8 T6    0  0.001648 -3.099116e-05              0.0              0.0     NaN      1.0        True  wye
6        Load 8 T7    0  0.001648 -3.099116e-05              0.0              0.0     NaN      1.0        True  wye
7        Load 8 T8    0  0.000990 -4.747042e-06              0.0              0.0     NaN      1.0        True  wye
8        Load 8 T9    0 -0.002562 -1.416783e-04              0.0              0.0     NaN      1.0        True  wye
9       Load 8 T10    0 -0.006296 -5.395336e-04              0.0              0.0     NaN      1.0        True  wye
10      Load 8 T11    0 -0.008563 -1.001723e-03              0.0              0.0     NaN      1.0        True  wye
11      Load 8 T12    0 -0.008967 -1.156931e-03              0.0              0.0     NaN      1.0        True  wye
12      Load 8 T13    0 -0.009628 -1.188775e-03              0.0              0.0     NaN      1.0        True  wye
13      Load 8 T14    0 -0.007879 -7.459021e-04              0.0              0.0     NaN      1.0        True  wye
14      Load 8 T15    0 -0.004457 -3.300553e-04              0.0              0.0     NaN      1.0        True  wye
15      Load 8 T16    0 -0.001534 -4.170480e-05              0.0              0.0     NaN      1.0        True  wye
16      Load 8 T17    0  0.002197 -2.845122e-05              0.0              0.0     NaN      1.0        True  wye
17      Load 8 T18    0  0.002746 -5.117316e-05              0.0              0.0     NaN      1.0        True  wye
18      Load 8 T19    0  0.002746 -3.405491e-05              0.0              0.0     NaN      1.0        True  wye
19      Load 8 T20    0  0.002197 -2.845122e-05              0.0              0.0     NaN      1.0        True  wye
20      Load 8 T21    0  0.002197 -4.517035e-05              0.0              0.0     NaN      1.0        True  wye
21      Load 8 T22    0  0.001648 -2.519085e-05              0.0              0.0     NaN      1.0        True  wye
22      Load 8 T23    0  0.001099 -1.358699e-05              0.0              0.0     NaN      1.0        True  wye
23      Load 8 T24    0  0.001099 -1.358699e-05              0.0              0.0     NaN      1.0        True  wye
24      Load 8 T25    0  0.001099 -1.358699e-05              0.0              0.0     NaN      1.0        True  wye
25      Load 8 T26    0  0.001099 -1.358699e-05              0.0              0.0     NaN      1.0        True  wye
26      Load 8 T27    0  0.001099 -1.358699e-05              0.0              0.0     NaN      1.0        True  wye
27      Load 8 T28    0  0.001099 -1.358699e-05              0.0              0.0     NaN      1.0        True  wye
28      Load 8 T29    0  0.001648 -2.519085e-05              0.0              0.0     NaN      1.0        True  wye
29      Load 8 T30    0  0.002197 -4.517035e-05              0.0              0.0     NaN      1.0        True  wye
30      Load 8 T31    0  0.001862 -2.879074e-05              0.0              0.0     NaN      1.0        True  wye
31      Load 8 T32    0 -0.000708 -2.221592e-05              0.0              0.0     NaN      1.0        True  wye
32      Load 8 T33    0 -0.006113 -4.793674e-04              0.0              0.0     NaN      1.0        True  wye
33      Load 8 T34    0 -0.009375 -1.100247e-03              0.0              0.0     NaN      1.0        True  wye
34      Load 8 T35    0 -0.011454 -1.623658e-03              0.0              0.0     NaN      1.0        True  wye
35      Load 8 T36    0 -0.012627 -1.977970e-03              0.0              0.0     NaN      1.0        True  wye
36      Load 8 T37    0 -0.013196 -1.357031e-02              0.0              0.0     NaN      1.0        True  wye
37      Load 8 T38    0 -0.011756 -1.480417e-02              0.0              0.0     NaN      1.0        True  wye
38      Load 8 T39    0 -0.008091 -1.654106e-02              0.0              0.0     NaN      1.0        True  wye
39      Load 8 T40    0 -0.005213 -3.588006e-04              0.0              0.0     NaN      1.0        True  wye
40      Load 8 T41    0 -0.000264 -6.404002e-06              0.0              0.0     NaN      1.0        True  wye
41      Load 8 T42    0  0.001648 -2.519085e-05              0.0              0.0     NaN      1.0        True  wye
42      Load 8 T43    0  0.002197 -4.517035e-05              0.0              0.0     NaN      1.0        True  wye
43      Load 8 T44    0  0.002197 -4.517035e-05              0.0              0.0     NaN      1.0        True  wye
44      Load 8 T45    0  0.002746 -6.829142e-05              0.0              0.0     NaN      1.0        True  wye
45      Load 8 T46    0  0.001648 -2.519085e-05              0.0              0.0     NaN      1.0        True  wye
46      Load 8 T47    0  0.001099 -1.358699e-05              0.0              0.0     NaN      1.0        True  wye
47      Load 8 T48    0  0.001099 -1.358699e-05              0.0              0.0     NaN      1.0        True  wye
48      Load 8 T49    0  0.000549 -5.112592e-06              0.0              0.0     NaN      1.0        True  wye
49      Load 8 T50    0  0.000549 -5.112592e-06              0.0              0.0     NaN      1.0        True  wye
50      Load 8 T51    0  0.000549 -5.112592e-06              0.0              0.0     NaN      1.0        True  wye
51      Load 8 T52    0  0.000549 -5.112592e-06              0.0              0.0     NaN      1.0        True  wye
52      Load 8 T53    0  0.000339 -2.721985e-06              0.0              0.0     NaN      1.0        True  wye
53      Load 8 T54    0 -0.000556 -9.426717e-06              0.0              0.0     NaN      1.0        True  wye
54      Load 8 T55    0 -0.004208 -2.429680e-04              0.0              0.0     NaN      1.0        True  wye
55      Load 8 T56    0 -0.006882 -1.569046e-02              0.0              0.0     NaN      1.0        True  wye
56      Load 8 T57    0 -0.012297 -1.856484e-03              0.0              0.0     NaN      1.0        True  wye
57      Load 8 T58    0 -0.014864 -2.706767e-03              0.0              0.0     NaN      1.0        True  wye
58      Load 8 T59    0 -0.016402  1.805297e-04              0.0              0.0     NaN      1.0        True  wye
59      Load 8 T60    0 -0.013239 -2.180074e-03              0.0              0.0     NaN      1.0        True  wye
60      Load 8 T61    0 -0.017162  3.833789e-04              0.0              0.0     NaN      1.0        True  wye
61      Load 8 T62    0 -0.015126 -2.797157e-03              0.0              0.0     NaN      1.0        True  wye
62      Load 8 T63    0 -0.009606 -1.182293e-03              0.0              0.0     NaN      1.0        True  wye
63      Load 8 T64    0 -0.008601 -9.338264e-04              0.0              0.0     NaN      1.0        True  wye
64      Load 8 T65    0 -0.005014 -3.320615e-04              0.0              0.0     NaN      1.0        True  wye
65      Load 8 T66    0 -0.001815 -5.088674e-05              0.0              0.0     NaN      1.0        True  wye
66      Load 8 T67    0  0.001099 -1.358699e-05              0.0              0.0     NaN      1.0        True  wye
67      Load 8 T68    0  0.001099 -1.358699e-05              0.0              0.0     NaN      1.0        True  wye
68      Load 8 T69    0  0.002197 -4.517035e-05              0.0              0.0     NaN      1.0        True  wye
69      Load 8 T70    0  0.001099 -1.358699e-05              0.0              0.0     NaN      1.0        True  wye
70      Load 8 T71    0  0.000549 -5.112592e-06              0.0              0.0     NaN      1.0        True  wye
71      Load 8 T72    0  0.000549 -5.112592e-06              0.0              0.0     NaN      1.0        True  wye
72      Load 8 T73    0  0.000549 -6.736064e-06              0.0              0.0     NaN      1.0        True  wye
73      Load 8 T74    0  0.000549 -6.710698e-06              0.0              0.0     NaN      1.0        True  wye
74      Load 8 T75    0  0.000549 -6.685331e-06              0.0              0.0     NaN      1.0        True  wye
75      Load 8 T76    0  0.000549 -6.634597e-06              0.0              0.0     NaN      1.0        True  wye
76      Load 8 T77    0 -0.000507 -5.196065e-06              0.0              0.0     NaN      1.0        True  wye
77      Load 8 T78    0 -0.003709 -1.640191e-04              0.0              0.0     NaN      1.0        True  wye
78      Load 8 T79    0 -0.008285 -8.207142e-04              0.0              0.0     NaN      1.0        True  wye
79      Load 8 T80    0 -0.011979 -1.824609e-03              0.0              0.0     NaN      1.0        True  wye
80      Load 8 T81    0 -0.015153 -2.973761e-03              0.0              0.0     NaN      1.0        True  wye
81      Load 8 T82    0 -0.018197 -2.385743e-03              0.0              0.0     NaN      1.0        True  wye
82      Load 8 T83    0 -0.017442 -2.380481e-04              0.0              0.0     NaN      1.0        True  wye
83      Load 8 T84    0 -0.017833 -1.506666e-03              0.0              0.0     NaN      1.0        True  wye
84      Load 8 T85    0 -0.018931 -3.326834e-03              0.0              0.0     NaN      1.0        True  wye
85      Load 8 T86    0 -0.016861 -1.359333e-03              0.0              0.0     NaN      1.0        True  wye
86      Load 8 T87    0 -0.013800 -2.458425e-03              0.0              0.0     NaN      1.0        True  wye
87      Load 8 T88    0 -0.010598 -1.380628e-03              0.0              0.0     NaN      1.0        True  wye
88      Load 8 T89    0 -0.006741 -6.420853e-04              0.0              0.0     NaN      1.0        True  wye
89      Load 8 T90    0 -0.001907 -8.034075e-05              0.0              0.0     NaN      1.0        True  wye
90      Load 8 T91    0  0.000859 -2.359029e-06              0.0              0.0     NaN      1.0        True  wye
91      Load 8 T92    0  0.001099 -8.297633e-06              0.0              0.0     NaN      1.0        True  wye
92      Load 8 T93    0  0.001099 -1.536922e-05              0.0              0.0     NaN      1.0        True  wye
93      Load 8 T94    0  0.001099 -1.544452e-05              0.0              0.0     NaN      1.0        True  wye
94      Load 8 T95    0  0.000549 -6.824848e-06              0.0              0.0     NaN      1.0        True  wye
95      Load 8 T96    0  0.000549 -6.672647e-06              0.0              0.0     NaN      1.0        True  wye
96      Load 8 T97    0  0.000549 -8.543148e-06              0.0              0.0     NaN      1.0        True  wye
97      Load 8 T98    0  0.000549 -8.543148e-06              0.0              0.0     NaN      1.0        True  wye
98      Load 8 T99    0  0.000549 -8.543148e-06              0.0              0.0     NaN      1.0        True  wye
99     Load 8 T100    0  0.000549 -8.543148e-06              0.0              0.0     NaN      1.0        True  wye
100    Load 8 T101    0  0.000304 -5.487886e-06              0.0              0.0     NaN      1.0        True  wye
101    Load 8 T102    0 -0.002878 -7.995574e-05              0.0              0.0     NaN      1.0        True  wye
102    Load 8 T103    0 -0.007180 -5.697189e-04              0.0              0.0     NaN      1.0        True  wye
103    Load 8 T104    0 -0.011172 -1.525301e-03              0.0              0.0     NaN      1.0        True  wye
104    Load 8 T105    0 -0.014563 -2.662422e-03              0.0              0.0     NaN      1.0        True  wye
105    Load 8 T106    0 -0.018382 -9.341925e-04              0.0              0.0     NaN      1.0        True  wye
106    Load 8 T107    0 -0.017833 -2.941096e-03              0.0              0.0     NaN      1.0        True  wye
107    Load 8 T108    0 -0.017284 -2.341403e-03              0.0              0.0     NaN      1.0        True  wye
108    Load 8 T109    0 -0.017833 -2.724782e-03              0.0              0.0     NaN      1.0        True  wye
109    Load 8 T110    0 -0.017833 -1.980269e-03              0.0              0.0     NaN      1.0        True  wye
110    Load 8 T111    0 -0.013414 -2.749628e-03              0.0              0.0     NaN      1.0        True  wye
111    Load 8 T112    0 -0.010707 -1.625302e-03              0.0              0.0     NaN      1.0        True  wye
112    Load 8 T113    0 -0.005694 -5.738788e-04              0.0              0.0     NaN      1.0        True  wye
113    Load 8 T114    0 -0.001078 -6.854644e-05              0.0              0.0     NaN      1.0        True  wye
114    Load 8 T115    0  0.001830 -1.336644e-05              0.0              0.0     NaN      1.0        True  wye
115    Load 8 T116    0  0.001648 -1.820162e-05              0.0              0.0     NaN      1.0        True  wye
116    Load 8 T117    0  0.001648 -2.867723e-05              0.0              0.0     NaN      1.0        True  wye
117    Load 8 T118    0  0.001099 -2.300017e-05              0.0              0.0     NaN      1.0        True  wye
118    Load 8 T119    0  0.000549 -8.543148e-06              0.0              0.0     NaN      1.0        True  wye
119    Load 8 T120    0  0.000549 -8.543148e-06              0.0              0.0     NaN      1.0        True  wye
120    Load 8 T121    0  0.000549 -5.112592e-06              0.0              0.0     NaN      1.0        True  wye
121    Load 8 T122    0  0.000549 -5.112592e-06              0.0              0.0     NaN      1.0        True  wye
122    Load 8 T123    0  0.000549 -5.112592e-06              0.0              0.0     NaN      1.0        True  wye
123    Load 8 T124    0  0.000549 -5.112592e-06              0.0              0.0     NaN      1.0        True  wye
124    Load 8 T125    0  0.000549 -5.112592e-06              0.0              0.0     NaN      1.0        True  wye
125    Load 8 T126    0  0.000763 -6.402326e-06              0.0              0.0     NaN      1.0        True  wye
126    Load 8 T127    0  0.000037 -1.841508e-06              0.0              0.0     NaN      1.0        True  wye
127    Load 8 T128    0  0.001091 -1.822940e-02              0.0              0.0     NaN      1.0        True  wye
128    Load 8 T129    0 -0.002678 -9.592584e-05              0.0              0.0     NaN      1.0        True  wye
129    Load 8 T130    0 -0.003986 -2.119117e-04              0.0              0.0     NaN      1.0        True  wye
130    Load 8 T131    0 -0.006591 -5.540405e-04              0.0              0.0     NaN      1.0        True  wye
131    Load 8 T132    0 -0.005218 -3.732920e-04              0.0              0.0     NaN      1.0        True  wye
132    Load 8 T133    0 -0.006745 -5.808296e-04              0.0              0.0     NaN      1.0        True  wye
133    Load 8 T134    0 -0.007404 -6.981960e-04              0.0              0.0     NaN      1.0        True  wye
134    Load 8 T135    0 -0.007287 -6.948003e-04              0.0              0.0     NaN      1.0        True  wye
135    Load 8 T136    0 -0.002719 -1.171451e-04              0.0              0.0     NaN      1.0        True  wye
136    Load 8 T137    0 -0.000142 -4.970417e-06              0.0              0.0     NaN      1.0        True  wye
137    Load 8 T138    0  0.000616 -4.725633e-06              0.0              0.0     NaN      1.0        True  wye
138    Load 8 T139    0  0.001648 -2.519085e-05              0.0              0.0     NaN      1.0        True  wye
139    Load 8 T140    0  0.001648 -2.519085e-05              0.0              0.0     NaN      1.0        True  wye
140    Load 8 T141    0  0.002746 -6.829142e-05              0.0              0.0     NaN      1.0        True  wye
141    Load 8 T142    0  0.001648 -2.519085e-05              0.0              0.0     NaN      1.0        True  wye
142    Load 8 T143    0  0.000549 -5.112592e-06              0.0              0.0     NaN      1.0        True  wye
143    Load 8 T144    0  0.000549 -5.112592e-06              0.0              0.0     NaN      1.0        True  wye
144    Load 8 T145    0  0.000549 -5.112592e-06              0.0              0.0     NaN      1.0        True  wye
145    Load 8 T146    0  0.000549 -5.112592e-06              0.0              0.0     NaN      1.0        True  wye
146    Load 8 T147    0  0.000549 -5.112592e-06              0.0              0.0     NaN      1.0        True  wye
147    Load 8 T148    0  0.000549 -5.112592e-06              0.0              0.0     NaN      1.0        True  wye
148    Load 8 T149    0  0.000549 -5.112592e-06              0.0              0.0     NaN      1.0        True  wye
149    Load 8 T150    0  0.001099 -1.358699e-05              0.0              0.0     NaN      1.0        True  wye
150    Load 8 T151    0  0.000848 -7.374808e-06              0.0              0.0     NaN      1.0        True  wye
151    Load 8 T152    0  0.001113 -6.965647e-06              0.0              0.0     NaN      1.0        True  wye
152    Load 8 T153    0 -0.001921 -5.626603e-05              0.0              0.0     NaN      1.0        True  wye
153    Load 8 T154    0 -0.002539 -8.774389e-05              0.0              0.0     NaN      1.0        True  wye
154    Load 8 T155    0 -0.003628 -1.798776e-04              0.0              0.0     NaN      1.0        True  wye
155    Load 8 T156    0 -0.004332 -2.577828e-04              0.0              0.0     NaN      1.0        True  wye
156    Load 8 T157    0 -0.004387 -2.525840e-04              0.0              0.0     NaN      1.0        True  wye
157    Load 8 T158    0 -0.003268 -1.477337e-04              0.0              0.0     NaN      1.0        True  wye
158    Load 8 T159    0 -0.000569 -9.760471e-06              0.0              0.0     NaN      1.0        True  wye
159    Load 8 T160    0 -0.000301 -4.552130e-06              0.0              0.0     NaN      1.0        True  wye
160    Load 8 T161    0  0.000549 -5.112592e-06              0.0              0.0     NaN      1.0        True  wye
161    Load 8 T162    0  0.000549 -5.112592e-06              0.0              0.0     NaN      1.0        True  wye
162    Load 8 T163    0  0.001099 -1.358699e-05              0.0              0.0     NaN      1.0        True  wye
163    Load 8 T164    0  0.001099 -1.358699e-05              0.0              0.0     NaN      1.0        True  wye
164    Load 8 T165    0  0.002197 -4.517035e-05              0.0              0.0     NaN      1.0        True  wye
165    Load 8 T166    0  0.001099 -1.358699e-05              0.0              0.0     NaN      1.0        True  wye
166    Load 8 T167    0  0.000549 -5.112592e-06              0.0              0.0     NaN      1.0        True  wye
167    Load 8 T168    0  0.000549 -5.112592e-06              0.0              0.0     NaN      1.0        True  wye
168    Load 8 T169    0  0.000549 -5.112592e-06              0.0              0.0     NaN      1.0        True  wye
169    Load 8 T170    0  0.000549 -5.112592e-06              0.0              0.0     NaN      1.0        True  wye
170    Load 8 T171    0  0.000549 -5.112592e-06              0.0              0.0     NaN      1.0        True  wye
171    Load 8 T172    0  0.000549 -5.112592e-06              0.0              0.0     NaN      1.0        True  wye
172    Load 8 T173    0  0.000549 -5.112592e-06              0.0              0.0     NaN      1.0        True  wye
173    Load 8 T174    0  0.000549 -7.069836e-06              0.0              0.0     NaN      1.0        True  wye
174    Load 8 T175    0  0.000549 -7.069836e-06              0.0              0.0     NaN      1.0        True  wye
175    Load 8 T176    0  0.000678 -3.475395e-06              0.0              0.0     NaN      1.0        True  wye
176    Load 8 T177    0 -0.001980 -8.705407e-05              0.0              0.0     NaN      1.0        True  wye
177    Load 8 T178    0 -0.005117 -3.596727e-04              0.0              0.0     NaN      1.0        True  wye
178    Load 8 T179    0 -0.007073 -6.877783e-04              0.0              0.0     NaN      1.0        True  wye
179    Load 8 T180    0 -0.006140 -5.680441e-04              0.0              0.0     NaN      1.0        True  wye
180    Load 8 T181    0 -0.006719 -5.781181e-04              0.0              0.0     NaN      1.0        True  wye
181    Load 8 T182    0 -0.005297 -3.248719e-04              0.0              0.0     NaN      1.0        True  wye
182    Load 8 T183    0 -0.001707 -6.740342e-05              0.0              0.0     NaN      1.0        True  wye
183    Load 8 T184    0  0.000304 -2.263713e-06              0.0              0.0     NaN      1.0        True  wye
184    Load 8 T185    0  0.001099 -6.306546e-06              0.0              0.0     NaN      1.0        True  wye
185    Load 8 T186    0  0.001648 -1.684736e-05              0.0              0.0     NaN      1.0        True  wye
186    Load 8 T187    0  0.001648 -8.788438e-06              0.0              0.0     NaN      1.0        True  wye
187    Load 8 T188    0  0.001099 -6.306546e-06              0.0              0.0     NaN      1.0        True  wye
188    Load 8 T189    0  0.001099 -1.358699e-05              0.0              0.0     NaN      1.0        True  wye
189    Load 8 T190    0  0.001099 -1.358699e-05              0.0              0.0     NaN      1.0        True  wye
190    Load 8 T191    0  0.000549 -5.112592e-06              0.0              0.0     NaN      1.0        True  wye
191    Load 8 T192    0  0.000549 -5.112592e-06              0.0              0.0     NaN      1.0        True  wye
192      Load 9 T1    1  0.001099 -2.488849e-06              0.0              0.0     NaN      1.0        True  wye
193      Load 9 T2    1  0.001099 -2.488849e-06              0.0              0.0     NaN      1.0        True  wye
194      Load 9 T3    1  0.001099 -2.488849e-06              0.0              0.0     NaN      1.0        True  wye
195      Load 9 T4    1  0.001099 -2.488849e-06              0.0              0.0     NaN      1.0        True  wye
196      Load 9 T5    1  0.001099 -2.488849e-06              0.0              0.0     NaN      1.0        True  wye
197      Load 9 T6    1  0.002197 -3.733273e-06              0.0              0.0     NaN      1.0        True  wye
198      Load 9 T7    1  0.002197 -3.733273e-06              0.0              0.0     NaN      1.0        True  wye
199      Load 9 T8    1  0.000081 -1.141453e-06              0.0              0.0     NaN      1.0        True  wye
...

EXT_GRID:
        name  bus  vm_pu  va_degree  slack_weight  in_service
0  ExtGrid 0    9    1.0        0.0           1.0        True
--------------------------------------------------

LINE:
      name std_type  from_bus  to_bus  length_km  r_ohm_per_km  x_ohm_per_km  c_nf_per_km  g_us_per_km  max_i_ka   df  parallel  type  in_service   geo
0   Line 0     None        10       7   0.100000        0.5502         0.429          0.0          0.0      0.23  1.0         1  None        True  None
1   Line 2     None         7       4   0.141421        0.5502         0.429          0.0          0.0      0.23  1.0         1  None        True  None
2   Line 8     None         8       0   0.150000        0.2747         0.402          0.0          0.0      0.34  1.0         1  None        True  None
3  Line 16     None         5       4   0.141421        0.5502         0.429          0.0          0.0      0.23  1.0         1  None        True  None
4  Line 18     None         6       5   0.200000        0.5502         0.429          0.0          0.0      0.23  1.0         1  None        True  None
5  Line 19     None         1       0   0.172047        0.2747         0.402          0.0          0.0      0.34  1.0         1  None        True  None
6  Line 21     None         3       0   0.194165        0.5502         0.429          0.0          0.0      0.23  1.0         1  None        True  None
7  Line 22     None         2       1   0.263059        0.5502         0.429          0.0          0.0      0.23  1.0         1  None        True  None
--------------------------------------------------

TRAFO:
                  name std_type  hv_bus  lv_bus  sn_mva  vn_hv_kv  vn_lv_kv  vk_percent  vkr_percent  pfe_kw  i0_percent  shift_degree tap_side  tap_neutral  tap_min  tap_max  tap_step_percent  tap_step_degree  tap_pos tap_changer_type  id_characteristic_table  tap_dependency_table  parallel   df  in_service
0  MV/LV Transformer 2     None       7       8    10.0      15.0       0.4        0.01         0.01    0.01        0.01           0.0     None          NaN      NaN      NaN               NaN              NaN      NaN              NaN                     <NA>                 False         1  1.0        True
1  Slack Transformer 0     None       9      10    40.0      70.0      15.0        0.01         0.01    0.01        0.01           0.0     None          NaN      NaN      NaN               NaN              NaN      NaN              NaN                     <NA>                 False         1  1.0        True
--------------------------------------------------

RES_BUS:
       vm_pu     va_degree      p_mw    q_mvar
0   0.999396 -4.927844e-02  0.000549 -0.000005
1   0.999072 -7.655106e-02  0.000549 -0.000001
2   0.998574 -9.879984e-02  0.000549  0.000000
3   0.999029 -6.568754e-02  0.000549  0.000000
4   0.999907 -4.112205e-03  0.034560 -0.000011
5   0.999865 -5.981420e-03  0.069120 -0.000001
6   0.999840 -7.114401e-03  0.051840  0.000000
7   0.999961 -1.708948e-03  0.000000  0.000000
8   0.999961 -1.708663e-03  0.000000  0.000000
9   1.000000  0.000000e+00 -0.157760 -0.005000
10  1.000000  4.297646e-07  0.000000  0.000000
--------------------------------------------------

RES_LINE:
   p_from_mw   q_from_mvar   p_to_mw     q_to_mvar         pl_mw       ql_mvar  i_from_ka   i_to_ka      i_ka  vm_from_pu  va_from_degree  vm_to_pu  va_to_degree  loading_percent
0   0.157750  1.000329e-03 -0.157744 -9.955841e-04  6.085490e-06  4.744956e-06   0.006072  0.006072  0.006072    1.000000    4.297646e-07  0.999961     -0.001709         2.639970
1   0.155535 -6.468562e-07 -0.155527  7.170347e-06  8.366491e-06  6.523491e-06   0.005987  0.005987  0.005987    0.999961   -1.708948e-03  0.999907     -0.004112         2.602948
2   0.002199 -3.640728e-06 -0.002198  5.463423e-06  1.245508e-06  1.822695e-06   0.003174  0.003174  0.003174    0.999961   -1.708663e-03  0.999396     -0.049278         0.933596
3  -0.120962  9.798434e-08  0.120967  3.848421e-06  5.061334e-06  3.946406e-06   0.004656  0.004656  0.004656    0.999865   -5.981420e-03  0.999907     -0.004112         2.024539
4  -0.051840  3.440423e-15  0.051842  1.025128e-06  1.314745e-06  1.025128e-06   0.001996  0.001996  0.001996    0.999840   -7.114401e-03  0.999865     -0.005981         0.867675
5  -0.001099  1.031037e-06  0.001099 -5.081891e-07  3.572795e-07  5.228481e-07   0.001587  0.001587  0.001587    0.999072   -7.655106e-02  0.999396     -0.049278         0.466888
6  -0.000549  2.465979e-13  0.000549  1.573589e-07  2.018158e-07  1.573591e-07   0.000794  0.000794  0.000794    0.999029   -6.568754e-02  0.999396     -0.049278         0.345019
7  -0.000549  6.496777e-13  0.000550  2.133873e-07  2.736738e-07  2.133880e-07   0.000794  0.000794  0.000794    0.998574   -9.879984e-02  0.999072     -0.076551         0.345177
--------------------------------------------------

RES_TRAFO:
    p_hv_mw  q_hv_mvar   p_lv_mw  q_lv_mvar    pl_mw  ql_mvar   i_hv_ka   i_lv_ka  vm_hv_pu  va_hv_degree  vm_lv_pu  va_lv_degree  loading_percent
0  0.002209   0.000996 -0.002199   0.000004  0.00001    0.001  0.000093  0.003174  0.999961     -0.001709  0.999961 -1.708663e-03         0.024234
1  0.157760   0.005000 -0.157750  -0.001000  0.00001    0.004  0.001302  0.006072  1.000000      0.000000  1.000000  4.297646e-07         0.394599
--------------------------------------------------

RES_EXT_GRID:
      p_mw  q_mvar
0  0.15776   0.005
--------------------------------------------------

RES_LOAD:
          p_mw    q_mvar
0     0.000000 -0.000000
1     0.000000 -0.000000
2     0.000000 -0.000000
3     0.000000 -0.000000
4     0.000000 -0.000000
5     0.000000 -0.000000
6     0.000000 -0.000000
7     0.000000 -0.000000
8    -0.000000 -0.000000
9    -0.000000 -0.000000
10   -0.000000 -0.000000
11   -0.000000 -0.000000
12   -0.000000 -0.000000
13   -0.000000 -0.000000
14   -0.000000 -0.000000
15   -0.000000 -0.000000
16    0.000000 -0.000000
17    0.000000 -0.000000
18    0.000000 -0.000000
19    0.000000 -0.000000
20    0.000000 -0.000000
21    0.000000 -0.000000
22    0.000000 -0.000000
23    0.000000 -0.000000
24    0.000000 -0.000000
25    0.000000 -0.000000
26    0.000000 -0.000000
27    0.000000 -0.000000
28    0.000000 -0.000000
29    0.000000 -0.000000
30    0.000000 -0.000000
31   -0.000000 -0.000000
32   -0.000000 -0.000000
33   -0.000000 -0.000000
34   -0.000000 -0.000000
35   -0.000000 -0.000000
36   -0.000000 -0.000000
37   -0.000000 -0.000000
38   -0.000000 -0.000000
39   -0.000000 -0.000000
40   -0.000000 -0.000000
41    0.000000 -0.000000
42    0.000000 -0.000000
43    0.000000 -0.000000
44    0.000000 -0.000000
45    0.000000 -0.000000
46    0.000000 -0.000000
47    0.000000 -0.000000
48    0.000000 -0.000000
49    0.000000 -0.000000
50    0.000000 -0.000000
51    0.000000 -0.000000
52    0.000000 -0.000000
53   -0.000000 -0.000000
54   -0.000000 -0.000000
55   -0.000000 -0.000000
56   -0.000000 -0.000000
57   -0.000000 -0.000000
58   -0.000000  0.000000
59   -0.000000 -0.000000
60   -0.000000  0.000000
61   -0.000000 -0.000000
62   -0.000000 -0.000000
63   -0.000000 -0.000000
64   -0.000000 -0.000000
65   -0.000000 -0.000000
66    0.000000 -0.000000
67    0.000000 -0.000000
68    0.000000 -0.000000
69    0.000000 -0.000000
70    0.000000 -0.000000
71    0.000000 -0.000000
72    0.000000 -0.000000
73    0.000000 -0.000000
74    0.000000 -0.000000
75    0.000000 -0.000000
76   -0.000000 -0.000000
77   -0.000000 -0.000000
78   -0.000000 -0.000000
79   -0.000000 -0.000000
80   -0.000000 -0.000000
81   -0.000000 -0.000000
82   -0.000000 -0.000000
83   -0.000000 -0.000000
84   -0.000000 -0.000000
85   -0.000000 -0.000000
86   -0.000000 -0.000000
87   -0.000000 -0.000000
88   -0.000000 -0.000000
89   -0.000000 -0.000000
90    0.000000 -0.000000
91    0.000000 -0.000000
92    0.000000 -0.000000
93    0.000000 -0.000000
94    0.000000 -0.000000
95    0.000000 -0.000000
96    0.000000 -0.000000
97    0.000000 -0.000000
98    0.000000 -0.000000
99    0.000000 -0.000000
100   0.000000 -0.000000
101  -0.000000 -0.000000
102  -0.000000 -0.000000
103  -0.000000 -0.000000
104  -0.000000 -0.000000
105  -0.000000 -0.000000
106  -0.000000 -0.000000
107  -0.000000 -0.000000
108  -0.000000 -0.000000
109  -0.000000 -0.000000
110  -0.000000 -0.000000
111  -0.000000 -0.000000
112  -0.000000 -0.000000
113  -0.000000 -0.000000
114   0.000000 -0.000000
115   0.000000 -0.000000
116   0.000000 -0.000000
117   0.000000 -0.000000
118   0.000000 -0.000000
119   0.000000 -0.000000
120   0.000000 -0.000000
121   0.000000 -0.000000
122   0.000000 -0.000000
123   0.000000 -0.000000
124   0.000000 -0.000000
125   0.000000 -0.000000
126   0.000000 -0.000000
127   0.000000 -0.000000
128  -0.000000 -0.000000
129  -0.000000 -0.000000
130  -0.000000 -0.000000
131  -0.000000 -0.000000
132  -0.000000 -0.000000
133  -0.000000 -0.000000
134  -0.000000 -0.000000
135  -0.000000 -0.000000
136  -0.000000 -0.000000
137   0.000000 -0.000000
138   0.000000 -0.000000
139   0.000000 -0.000000
140   0.000000 -0.000000
141   0.000000 -0.000000
142   0.000000 -0.000000
143   0.000000 -0.000000
144   0.000000 -0.000000
145   0.000000 -0.000000
146   0.000000 -0.000000
147   0.000000 -0.000000
148   0.000000 -0.000000
149   0.000000 -0.000000
150   0.000000 -0.000000
151   0.000000 -0.000000
152  -0.000000 -0.000000
153  -0.000000 -0.000000
154  -0.000000 -0.000000
155  -0.000000 -0.000000
156  -0.000000 -0.000000
157  -0.000000 -0.000000
158  -0.000000 -0.000000
159  -0.000000 -0.000000
160   0.000000 -0.000000
161   0.000000 -0.000000
162   0.000000 -0.000000
163   0.000000 -0.000000
164   0.000000 -0.000000
165   0.000000 -0.000000
166   0.000000 -0.000000
167   0.000000 -0.000000
168   0.000000 -0.000000
169   0.000000 -0.000000
170   0.000000 -0.000000
171   0.000000 -0.000000
172   0.000000 -0.000000
173   0.000000 -0.000000
174   0.000000 -0.000000
175   0.000000 -0.000000
176  -0.000000 -0.000000
177  -0.000000 -0.000000
178  -0.000000 -0.000000
179  -0.000000 -0.000000
180  -0.000000 -0.000000
181  -0.000000 -0.000000
182  -0.000000 -0.000000
183   0.000000 -0.000000
184   0.000000 -0.000000
185   0.000000 -0.000000
186   0.000000 -0.000000
187   0.000000 -0.000000
188   0.000000 -0.000000
189   0.000000 -0.000000
190   0.000000 -0.000000
191   0.000549 -0.000005
192   0.000000 -0.000000
193   0.000000 -0.000000
194   0.000000 -0.000000
195   0.000000 -0.000000
196   0.000000 -0.000000
197   0.000000 -0.000000
198   0.000000 -0.000000
199   0.000000 -0.000000
...

BUS_GEODATA:
       x     y
0   11.0  48.0
1   25.0  38.0
2   51.0  42.0
3    0.0  64.0
4   10.0  70.0
5   20.0  80.0
6   40.0  80.0
7   20.0  60.0
8   20.5  59.5
9   30.0  60.0
10  30.5  59.5
--------------------------------------------------
